Version 4
SHEET 1 880 680
WIRE 80 144 0 144
WIRE 144 144 128 144
WIRE 208 144 144 144
WIRE 0 160 0 144
WIRE 208 160 208 144
WIRE 0 256 0 240
WIRE 208 256 208 240
WIRE 208 256 0 256
FLAG 0 256 0
SYMBOL voltage 0 144 R0
WINDOW 123 0 0 Left 0
WINDOW 39 0 0 Left 0
SYMATTR InstName V1
SYMATTR Value SINE(0 1 1k)
SYMBOL res 192 144 R0
SYMATTR InstName R1
SYMATTR Value 1k
SYMBOL diode 80 160 R270
WINDOW 0 32 32 VTop 2
WINDOW 3 0 32 VBottom 2
SYMATTR InstName D1
SYMATTR Value 1N4148
TEXT -32 280 Left 2 !.tran 10m
