Version 4
SHEET 1 880 680
WIRE 96 48 48 48
WIRE 112 48 96 48
WIRE 240 48 176 48
WIRE 240 96 240 48
WIRE 320 96 240 96
WIRE 320 112 320 96
WIRE 48 128 48 48
WIRE 112 160 96 48
WIRE 192 160 176 48
WIRE 288 176 240 176
WIRE 320 176 288 176
WIRE 288 224 288 176
FLAG 288 224 0
FLAG 48 208 0
SYMBOL voltage 48 112 R0
WINDOW 123 24 124 Left 2
WINDOW 39 0 0 Left 0
SYMATTR InstName V1
SYMATTR Value PULSE(0 1 0 1n 1n 1 2)
SYMATTR Value2 AC 1
SYMBOL res 208 144 R90
WINDOW 0 0 56 VBottom 2
WINDOW 3 32 56 VTop 2
SYMATTR InstName R1
SYMATTR Value 1k
SYMBOL cap 176 32 R90
WINDOW 0 0 32 VBottom 2
WINDOW 3 32 32 VTop 2
SYMATTR InstName C1
SYMATTR Value 0.5µ
SYMBOL res 224 80 R0
SYMATTR InstName R2
SYMATTR Value 1k
SYMBOL cap 304 112 R0
SYMATTR InstName C2
SYMATTR Value 2µ
TEXT 32 280 Left 2 !.tran 10m
