Version 4
SHEET 1 1716 680
WIRE 240 32 16 32
WIRE 240 96 240 32
WIRE 240 96 144 96
WIRE 368 96 240 96
WIRE 16 144 16 32
WIRE 144 176 144 160
WIRE 144 176 96 176
WIRE 368 176 368 160
WIRE 464 176 368 176
WIRE 544 176 464 176
WIRE 144 192 144 176
WIRE 368 192 368 176
WIRE 256 256 144 256
WIRE 368 256 256 256
WIRE 464 256 432 256
WIRE 544 256 464 256
WIRE 96 304 96 176
WIRE 432 304 432 256
WIRE 432 304 96 304
WIRE 16 336 16 224
WIRE 176 336 16 336
WIRE 256 336 256 256
WIRE 256 336 176 336
FLAG 176 336 0
SYMBOL diode 128 192 R0
SYMATTR InstName D2
SYMATTR Value 1N4148
SYMBOL diode 384 256 R180
WINDOW 0 24 64 Left 2
WINDOW 3 24 0 Left 2
SYMATTR InstName D3
SYMATTR Value 1N4148
SYMBOL voltage 16 128 R0
WINDOW 123 0 0 Left 0
WINDOW 39 0 0 Left 0
SYMATTR InstName V1
SYMATTR Value SINE(0 1 1k)
SYMBOL res 448 160 R0
SYMATTR InstName R1
SYMATTR Value 1000k
SYMBOL diode 352 96 R0
SYMATTR InstName D4
SYMATTR Value 1N4148
SYMBOL diode 160 160 R180
WINDOW 0 24 64 Left 2
WINDOW 3 24 0 Left 2
SYMATTR InstName D1
SYMATTR Value 1N4148
TEXT -16 360 Left 2 !.tran 10m
