Version 4
SHEET 1 880 680
WIRE -144 64 -240 64
WIRE 32 64 -64 64
WIRE 144 64 32 64
WIRE -240 96 -240 64
WIRE 32 96 32 64
WIRE 144 96 144 64
WIRE 32 176 32 160
WIRE 32 176 -240 176
WIRE 144 176 32 176
WIRE 32 208 32 176
FLAG 32 208 0
SYMBOL zener 48 160 R180
WINDOW 0 24 64 Left 2
WINDOW 3 24 0 Left 2
SYMATTR InstName D1
SYMATTR Value 1N750
SYMBOL res -48 48 R90
WINDOW 0 0 56 VBottom 2
WINDOW 3 32 56 VTop 2
SYMATTR InstName R1
SYMATTR Value 250
SYMBOL voltage -240 80 R0
WINDOW 123 24 124 Left 2
WINDOW 39 0 0 Left 0
SYMATTR InstName V1
SYMATTR Value SINE(0 10 1k)
SYMBOL res 128 80 R0
SYMATTR InstName R
SYMATTR Value 10k
TEXT -272 232 Left 2 !.tran 10m
