Version 4
SHEET 1 1648 680
WIRE 688 -48 528 -48
WIRE 96 16 -32 16
WIRE 224 16 160 16
WIRE 528 32 528 -48
WIRE 496 48 256 48
WIRE 800 64 592 64
WIRE 928 64 880 64
WIRE 1584 64 1584 48
WIRE 1584 64 928 64
WIRE 128 80 80 80
WIRE 496 80 272 80
WIRE 928 80 928 64
WIRE 80 112 80 80
WIRE 272 112 272 80
WIRE 592 112 592 64
WIRE 592 112 272 112
WIRE -144 128 -160 128
WIRE -32 128 -32 16
WIRE -32 128 -64 128
WIRE 48 128 0 128
WIRE 256 128 256 48
WIRE 272 128 256 128
WIRE 528 128 528 96
WIRE 752 128 752 -80
WIRE 752 128 528 128
WIRE 224 144 224 16
WIRE 224 144 144 144
WIRE 272 144 272 128
WIRE 272 144 224 144
WIRE -32 160 -32 128
WIRE 48 160 -32 160
WIRE 352 208 352 -96
WIRE 320 224 224 224
WIRE 688 224 688 -48
WIRE 688 224 640 224
WIRE 0 240 0 128
WIRE 0 240 -48 240
WIRE 432 240 416 240
WIRE 800 240 736 240
WIRE 944 240 880 240
WIRE 1616 240 1616 192
WIRE 1616 240 944 240
WIRE 320 256 272 256
WIRE 944 256 944 240
WIRE 640 272 640 224
WIRE 352 288 352 272
WIRE 432 288 432 240
WIRE 608 288 432 288
WIRE -48 304 -48 240
WIRE 48 304 -48 304
WIRE 720 304 704 304
WIRE 736 304 736 240
WIRE 736 304 720 304
WIRE 608 320 560 320
WIRE 640 352 640 336
WIRE 752 352 752 128
WIRE 752 352 640 352
WIRE 48 368 48 304
WIRE 160 368 48 368
WIRE 272 368 272 256
WIRE 272 368 240 368
WIRE 304 368 272 368
WIRE 416 368 416 240
WIRE 416 368 368 368
WIRE -160 416 -160 128
WIRE 416 416 416 368
WIRE 416 416 -160 416
WIRE 560 416 560 320
WIRE 720 416 720 304
WIRE 720 416 560 416
FLAG -48 384 0
FLAG 224 288 0
FLAG 208 80 0
FLAG 1616 192 Vout_Cosine
FLAG 1584 48 Vout_Sine
FLAG 80 176 0
FLAG 432 -96 0
FLAG 352 288 0
FLAG 928 144 0
FLAG 944 320 0
FLAG 448 -48 0
FLAG 752 -160 0
SYMBOL UA741 80 144 R0
SYMATTR InstName U1
SYMBOL UA741 352 240 R0
SYMATTR InstName U2
SYMBOL res -48 112 R90
WINDOW 0 0 56 VBottom 2
WINDOW 3 32 56 VTop 2
SYMATTR InstName R1
SYMATTR Value {R}
SYMBOL res 240 240 R180
WINDOW 0 36 76 Left 2
WINDOW 3 36 40 Left 2
SYMATTR InstName R2
SYMATTR Value {R}
SYMBOL res 144 384 R270
WINDOW 0 32 56 VTop 2
WINDOW 3 0 56 VBottom 2
SYMATTR InstName R3
SYMATTR Value {R}
SYMBOL cap 208 224 R0
SYMATTR InstName C1
SYMATTR Value {C}
SYMBOL cap 368 352 R90
WINDOW 0 0 32 VBottom 2
WINDOW 3 32 32 VTop 2
SYMATTR InstName C2
SYMATTR Value {C}
SYMBOL cap 160 0 R90
WINDOW 0 0 32 VBottom 2
WINDOW 3 32 32 VTop 2
SYMATTR InstName C3
SYMATTR Value {C}
SYMBOL voltage -48 288 R0
WINDOW 123 0 0 Left 0
WINDOW 39 0 0 Left 0
SYMATTR InstName V1
SYMATTR Value 2.5
SYMBOL voltage 112 80 R270
WINDOW 0 32 56 VTop 2
WINDOW 3 -32 56 VBottom 2
WINDOW 123 0 0 Left 0
WINDOW 39 0 0 Left 0
SYMATTR InstName V2
SYMATTR Value 5
SYMBOL voltage 336 -96 R270
WINDOW 0 32 56 VTop 2
WINDOW 3 -32 56 VBottom 2
WINDOW 123 0 0 Left 0
WINDOW 39 0 0 Left 0
SYMATTR InstName V3
SYMATTR Value 5
SYMBOL UA741 528 64 R0
SYMATTR InstName U3
SYMBOL UA741 640 304 R0
SYMATTR InstName U4
SYMBOL res 896 48 R90
WINDOW 0 0 56 VBottom 2
WINDOW 3 32 56 VTop 2
SYMATTR InstName R4
SYMATTR Value 11.2
SYMBOL cap 912 80 R0
SYMATTR InstName C4
SYMATTR Value 0.1µ
SYMBOL cap 928 256 R0
SYMATTR InstName C5
SYMATTR Value 0.1µ
SYMBOL res 896 224 R90
WINDOW 0 0 56 VBottom 2
WINDOW 3 32 56 VTop 2
SYMATTR InstName R5
SYMATTR Value 11.2
SYMBOL voltage 544 -48 R90
WINDOW 0 -32 56 VBottom 2
WINDOW 3 32 56 VTop 2
WINDOW 123 0 0 Left 0
WINDOW 39 0 0 Left 0
SYMATTR InstName V5
SYMATTR Value 5
SYMBOL voltage 752 -64 R180
WINDOW 0 24 96 Left 2
WINDOW 3 24 16 Left 2
WINDOW 123 0 0 Left 0
WINDOW 39 0 0 Left 0
SYMATTR InstName V4
SYMATTR Value -5
TEXT 744 352 Left 2 !.param C=4.37p R=159k
TEXT -160 424 Left 2 !.tran 3m
