Version 4
SHEET 1 1056 680
WIRE 96 -32 -64 -32
WIRE -496 32 -624 32
WIRE -368 32 -432 32
WIRE -64 48 -64 -32
WIRE -96 64 -336 64
WIRE 208 80 0 80
WIRE 336 80 288 80
WIRE 512 80 336 80
WIRE -464 96 -512 96
WIRE -96 96 -320 96
WIRE 336 96 336 80
WIRE 688 96 608 96
WIRE 992 96 992 64
WIRE 992 96 688 96
WIRE 512 112 432 112
WIRE -512 128 -512 96
WIRE -320 128 -320 96
WIRE 0 128 0 80
WIRE 0 128 -320 128
WIRE -736 144 -752 144
WIRE -624 144 -624 32
WIRE -624 144 -656 144
WIRE -544 144 -592 144
WIRE -336 144 -336 64
WIRE -320 144 -336 144
WIRE -64 144 -64 112
WIRE 160 144 160 -64
WIRE 160 144 -64 144
WIRE 432 144 432 112
WIRE 608 144 432 144
WIRE 688 144 688 96
WIRE -368 160 -368 32
WIRE -368 160 -448 160
WIRE -320 160 -320 144
WIRE -320 160 -368 160
WIRE -624 176 -624 144
WIRE -544 176 -624 176
WIRE -240 224 -240 -80
WIRE 544 224 544 128
WIRE 800 224 544 224
WIRE -272 240 -368 240
WIRE 96 240 96 -32
WIRE 96 240 48 240
WIRE 544 240 544 224
WIRE -592 256 -592 144
WIRE -592 256 -640 256
WIRE -160 256 -176 256
WIRE 208 256 144 256
WIRE 352 256 288 256
WIRE 512 256 352 256
WIRE -272 272 -320 272
WIRE 352 272 352 256
WIRE 704 272 608 272
WIRE 1024 272 1024 208
WIRE 1024 272 704 272
WIRE 48 288 48 240
WIRE 512 288 496 288
WIRE -240 304 -240 288
WIRE -160 304 -160 256
WIRE 16 304 -160 304
WIRE -640 320 -640 256
WIRE -544 320 -640 320
WIRE 128 320 112 320
WIRE 144 320 144 256
WIRE 144 320 128 320
WIRE 544 320 544 304
WIRE 576 320 544 320
WIRE 16 336 -32 336
WIRE 496 352 496 288
WIRE 624 352 496 352
WIRE 704 352 704 272
WIRE 48 368 48 352
WIRE 160 368 160 144
WIRE 160 368 48 368
WIRE -544 384 -544 320
WIRE -432 384 -544 384
WIRE -320 384 -320 272
WIRE -320 384 -352 384
WIRE -288 384 -320 384
WIRE -176 384 -176 256
WIRE -176 384 -224 384
WIRE 576 400 576 320
WIRE -752 432 -752 144
WIRE -176 432 -176 384
WIRE -176 432 -752 432
WIRE -32 432 -32 336
WIRE 128 432 128 320
WIRE 128 432 -32 432
FLAG -640 400 0
FLAG -368 304 0
FLAG -384 96 0
FLAG 1024 208 Vout_Cosine
FLAG 992 64 Vout_Sine
FLAG -512 192 0
FLAG -160 -80 0
FLAG -240 304 0
FLAG 336 160 0
FLAG 352 336 0
FLAG -144 -32 0
FLAG 160 -144 0
FLAG 496 432 0
FLAG 432 224 0
FLAG 544 -16 0
FLAG 800 144 0
FLAG 576 480 0
SYMBOL UA741 -512 160 R0
SYMATTR InstName U1
SYMBOL UA741 -240 256 R0
SYMATTR InstName U2
SYMBOL res -640 128 R90
WINDOW 0 0 56 VBottom 2
WINDOW 3 32 56 VTop 2
SYMATTR InstName R1
SYMATTR Value {R}
SYMBOL res -352 256 R180
WINDOW 0 36 76 Left 2
WINDOW 3 36 40 Left 2
SYMATTR InstName R2
SYMATTR Value {R}
SYMBOL res -448 400 R270
WINDOW 0 32 56 VTop 2
WINDOW 3 0 56 VBottom 2
SYMATTR InstName R3
SYMATTR Value {R}
SYMBOL cap -384 240 R0
SYMATTR InstName C1
SYMATTR Value {C}
SYMBOL cap -224 368 R90
WINDOW 0 0 32 VBottom 2
WINDOW 3 32 32 VTop 2
SYMATTR InstName C2
SYMATTR Value {C}
SYMBOL cap -432 16 R90
WINDOW 0 0 32 VBottom 2
WINDOW 3 32 32 VTop 2
SYMATTR InstName C3
SYMATTR Value {C}
SYMBOL voltage -640 304 R0
WINDOW 123 0 0 Left 0
WINDOW 39 0 0 Left 0
SYMATTR InstName V1
SYMATTR Value 2.5
SYMBOL voltage -480 96 R270
WINDOW 0 32 56 VTop 2
WINDOW 3 -32 56 VBottom 2
WINDOW 123 0 0 Left 0
WINDOW 39 0 0 Left 0
SYMATTR InstName V2
SYMATTR Value 5
SYMBOL voltage -256 -80 R270
WINDOW 0 32 56 VTop 2
WINDOW 3 -32 56 VBottom 2
WINDOW 123 0 0 Left 0
WINDOW 39 0 0 Left 0
SYMATTR InstName V3
SYMATTR Value 5
SYMBOL UA741 -64 80 R0
SYMATTR InstName U3
SYMBOL UA741 48 320 R0
SYMATTR InstName U4
SYMBOL res 304 64 R90
WINDOW 0 0 56 VBottom 2
WINDOW 3 32 56 VTop 2
SYMATTR InstName R4
SYMATTR Value 11.2
SYMBOL cap 320 96 R0
SYMATTR InstName C4
SYMATTR Value 0.1µ
SYMBOL cap 336 272 R0
SYMATTR InstName C5
SYMATTR Value 0.1µ
SYMBOL res 304 240 R90
WINDOW 0 0 56 VBottom 2
WINDOW 3 32 56 VTop 2
SYMATTR InstName R5
SYMATTR Value 11.2
SYMBOL voltage -48 -32 R90
WINDOW 0 -32 56 VBottom 2
WINDOW 3 32 56 VTop 2
WINDOW 123 0 0 Left 0
WINDOW 39 0 0 Left 0
SYMATTR InstName V4
SYMATTR Value 5
SYMBOL voltage 160 -48 R180
WINDOW 0 24 96 Left 2
WINDOW 3 24 16 Left 2
WINDOW 123 0 0 Left 0
WINDOW 39 0 0 Left 0
SYMATTR InstName V5
SYMATTR Value -5
SYMBOL UA741 544 96 R0
SYMATTR InstName U5
SYMBOL UA741 544 272 R0
SYMATTR InstName U6
SYMBOL res 704 128 R90
WINDOW 0 0 56 VBottom 2
WINDOW 3 32 56 VTop 2
SYMATTR InstName R6
SYMATTR Value 36885.734635462
SYMBOL res 608 368 R270
WINDOW 0 32 56 VTop 2
WINDOW 3 0 56 VBottom 2
SYMATTR InstName R7
SYMATTR Value 36885.734635462
SYMBOL res 480 336 R0
SYMATTR InstName R8
SYMATTR Value 10k
SYMBOL res 416 128 R0
SYMATTR InstName R9
SYMATTR Value 10k
SYMBOL voltage 544 80 R180
WINDOW 0 24 96 Left 2
WINDOW 3 24 16 Left 2
WINDOW 123 0 0 Left 0
WINDOW 39 0 0 Left 0
SYMATTR InstName V6
SYMATTR Value 5
SYMBOL voltage 800 240 R180
WINDOW 0 24 96 Left 2
WINDOW 3 24 16 Left 2
WINDOW 123 0 0 Left 0
WINDOW 39 0 0 Left 0
SYMATTR InstName V7
SYMATTR Value -5
SYMBOL voltage 576 384 R0
WINDOW 123 0 0 Left 0
WINDOW 39 0 0 Left 0
SYMATTR InstName V8
SYMATTR Value -5
TEXT 152 368 Left 2 !.param C=4.37p R=159k
TEXT -752 440 Left 2 !.tran 1m
